/*--------------------------------*- C++ -*----------------------------------*\
| =========                 |                                                 |
| \\      /  F ield         | OpenFOAM: The Open Source CFD Toolbox           |
|  \\    /   O peration     | Version:  5                                     |
|   \\  /    A nd           | Web:      www.OpenFOAM.org                      |
|    \\/     M anipulation  |                                                 |
\*---------------------------------------------------------------------------*/
FoamFile
{
    version     2.0;
    format      ascii;
    class       dictionary;
    location    "system";
    object      fvSchemes;
}
// * * * * * * * * * * * * * * * * * * * * * * * * * * * * * * * * * * * * * //

ddtSchemes
{
    default none;
    ddt(solidPorousModel<rhoCp,TStructures)    Euler;
}

gradSchemes
{
}

divSchemes
{
}

laplacianSchemes
{
    laplacian(solidPorousModel<kappa,TStructures)   Gauss linear orthogonal;
}

interpolationSchemes
{
}

snGradSchemes
{
}

fluxRequired
{
}


// ************************************************************************* //
