/*--------------------------------*- C++ -*----------------------------------*\
| =========                 |                                                 |
| \\      /  F ield         | OpenFOAM: The Open Source CFD Toolbox           |
|  \\    /   O peration     | Version:  5                                     |
|   \\  /    A nd           | Web:      www.OpenFOAM.org                      |
|    \\/     M anipulation  |                                                 |
\*---------------------------------------------------------------------------*/
FoamFile
{
    version     2.0;
    format      ascii;
    class       volScalarField;
    location    "0/neutroRegion";
    object      defaultFlux;
}
// * * * * * * * * * * * * * * * * * * * * * * * * * * * * * * * * * * * * * //

dimensions      [ 0 -2 -1 0 0 0 0 ];

internalField   uniform 1;

boundaryField
{
    ".*Wall"
    {
        type            albedoSP3;
        gamma           0.5; // defined as (1-alpha)/(1+alpha)/2, alpha being the albedo coefficient
        diffCoeffName   Dalbedo;  //not to be changed
        fluxStarAlbedo  fluxStarAlbedo; //not to be changed
        forSecondMoment false;  //true in case it is a condition for a second moment flux (for SP3 calculations)
        value           uniform 1;
    }
    frontAndBack
    {
        type            empty;
    }
}


// ************************************************************************* //
