/*--------------------------------*- C++ -*----------------------------------*\
| =========                 |                                                 |
| \\      /  F ield         | OpenFOAM: The Open Source CFD Toolbox           |
|  \\    /   O peration     | Version:  5                                     |
|   \\  /    A nd           | Web:      www.OpenFOAM.org                      |
|    \\/     M anipulation  |                                                 |
\*---------------------------------------------------------------------------*/

FoamFile
{
    version     2.0;
    format      ascii;
    class       dictionary;
    location    "constant";
    object      thermoMechanicalProperties;
}

// * * * * * * * * * * * * * * * * * * * * * * * * * * * * * * * * * * * * * //

// constants needed to calculate deformation of fuel, control rods AND structure (1D expansion for fuel and CR, displacement-based solver for structures)

planeStress     no;
linkedFuel      false; // true if there is contact between fuel and cladding (expansion driven by cladding)
fuelOrientation   (0 0 1); 
TrefStructure		900; //ref temperature for structures

zones
(
    /*innerCore
    {
	%for structures
	rho				1000; //density
	E				1e7;  // Young modulus
	nu				0.1; // Poisson ratio
	C				200; // not used
	k				5; // not used
	alpha				1.8e-5; // linear expansion coeff (1/K)
	// for fuel (only if there is fuel)
	TrefFuel			668;
	alphaFuel			1.1e-5;
    }
    outerCore
    {
	rho				1000;
	E				1e7;
	nu				0.1;
	C				200;
	k				5;
	alpha				1.8e-5;
	TrefFuel			668;
	alphaFuel			1.1e-5;//1.1
    }
    follower
    {
	rho				1000;
	E				1e7;
	nu				0.1;
	C				293;
	k				5;
	alpha				1.8e-5;
    }
     controlRod
    {
	rho				1000;
	E				1e7;
	nu				0.1;
	C				200;
	k				5;
	alpha				1.8e-5;
	// for control rods (only if this is a control rod)
	TrefCR				668;
	alphaCR				5.4e-5;
    }
    diagrid
    {
	rho				1000;
	E				1e9;
	nu				0.3;
	C				200;
	k				5;
	alpha				1.8e-5;
    }
    radialReflector
    {
	rho				1000;
	E				1e9;
	nu				0.3;
	C				200;
	k				5;
	alpha				1.8e-5;
    }
    rest
    {
	rho				1000;
	E				1e7;
	nu				0.1;
	C				200;
	k				5;
	alpha				1.8e-5;
    }
    softStructure
    {
	rho				1000;
	E				1e8;
	nu				0.1;
	C				200;
	k				5;
	alpha				1.8e-5;
    }*/
);


// ************************************************************************* //
