FoamFile
{
    version     2.0;
    format      ascii;
    class       dictionary;
    location    "constant";
    object      CRmove;
}

// in case one wants to move control rods, he/she should here define the control rods he/she wants to move

zones
(
);
