/*--------------------------------*- C++ -*----------------------------------*\
| =========                 |                                                 |
| \\      /  F ield         | OpenFOAM: The Open Source CFD Toolbox           |
|  \\    /   O peration     | Version:  5                                     |
|   \\  /    A nd           | Web:      www.OpenFOAM.org                      |
|    \\/     M anipulation  |                                                 |
\*---------------------------------------------------------------------------*/
FoamFile
{
    version     2.0;
    format      ascii;
    class       dictionary;
    location    "constant";
    object      solidPorousProperties;
}
// * * * * * * * * * * * * * * * * * * * * * * * * * * * * * * * * * * * * * //

// constants needed to calculate fluid flow in regions treated as porous medium
// all cellZones must be included
// by not defining one of the properties, a default value will be used corresponding to a region of clear fluid

model   solidByZoneCorrelation;

zones
{
    cavity
    {
        rhoCp               4.8e6;
    }
}


/*
Below are listed all possible options for a porous region

    rhoCp               4.8e6; // rho*cp for the subscale structure
*/

// ************************************************************************* //
