// Arbitrary XS for analytical solution
// 02-March-2018

// No delayed neutron precursors!

FoamFile
{
    version     2.0;
    format      ascii;
    class       dictionary;
    location    "constant";
    object      nuclearData/nominal;
}

energyGroups        1;
precursorGroups     1;

rhoCoolRef  1000;
TFuelRef    1000;

zones
{
    cavity
    {
        D               nonuniform List<scalar> 1 ( 2e-02 );
        sigmaRem        nonuniform List<scalar> 1 ( 1 );
        scatteringMatrix  1  1 (
            ( 1.566666e+01 )
        );
        nuSigmaF        nonuniform List<scalar> 1 ( 1.04 );
        kappaFission    nonuniform List<scalar> 1 ( 1 );

        chiPrompt       nonuniform List<scalar> 1 ( 1 );
        chiDelayed      nonuniform List<scalar> 1 ( 0 );
        IV              nonuniform List<scalar> 1 ( 1E-07 );
        discFactor      nonuniform List<scalar> 1 ( 1 );
        integralFlux    nonuniform List<scalar> 1 ( 1 );

        beta            nonuniform List<scalar> 1 ( 0 );
        lambda          nonuniform List<scalar> 1 ( 1.246670E-02 );
        ScNo            2e8;
    }
}
