/*--------------------------------*- C++ -*----------------------------------*\
| =========                 |                                                 |
| \\      /  F ield         | OpenFOAM: The Open Source CFD Toolbox           |
|  \\    /   O peration     | Version:  5.x                                   |
|   \\  /    A nd           | Web:      www.OpenFOAM.org                      |
|    \\/     M anipulation  |                                                 |
\*---------------------------------------------------------------------------*/
FoamFile
{
    version         2;
    format          ascii;
    class           dictionary;
    location        "constant";
    object          neutronicsProperties;
}
// * * * * * * * * * * * * * * * * * * * * * * * * * * * * * * * * * * * * * //

SP3Neutronics           false;

eigenvalueNeutronics    true;

fastNeutrons            true;

adjustDiscFactors       false;

// groupsWoDF              (0 1 2 3 4 5 6 7 8 9 14 15 16 17 18 19 20 21 22 23);

useGivenDiscFactors     false;

// doNotParametrize        ();

// ************************************************************************* //
