/*
crossSection dictionary
Generated by serpentToFoamXS
22-May-2017
From SERPENT results file: c1u5_res
*/

/*
physical delayed neutron fraction and spectrum
*/

FoamFile
{
    version     2.0;
    format      ascii;
    class       dictionary;
    location    "constant";
    object      nuclearData;
}

energyGroups    1;
precGroups      1;

pTarget     1.000000e+09;

rhoCoolRef  2000;
TfuelRef    900;

zones
(
    cavity
    {
        fuelFraction    1.000000e+00 ;
        IV              nonuniform List<scalar> 1 ( 1E-07 );
        D               nonuniform List<scalar> 1 ( 0.0333333 );//( 2.800640E-02 );
        nuSigmaEff      nonuniform List<scalar> 1 ( 10.0666666 );//( 3.178061E-01 );
        sigmaPow        nonuniform List<scalar> 1 ( 10.0666666 );//( 3.607215E-12 );
        scatteringMatrix  1  1 (
        ( 0 )
        );
        sigmaDisapp     nonuniform List<scalar> 1 ( 10 );//( 5.703600E+00 );
        chiPrompt       nonuniform List<scalar> 1 ( 1 );//( 3.538120E-01 );
        chiDelayed      nonuniform List<scalar> 1 ( 0 );//( 4.303250E-03 );
        Beta            nonuniform List<scalar> 1 ( 0 );
        lambda          nonuniform List<scalar> 1 ( 1.246670E-02 );
        discFactor      nonuniform List<scalar> 1 ( 1 );
        integralFlux    nonuniform List<scalar> 1 ( 1 );
        ScNo 2e8;
    }
);
