/*--------------------------------*- C++ -*----------------------------------*\
| =========                 |                                                 |
| \\      /  F ield         | OpenFOAM: The Open Source CFD Toolbox           |
|  \\    /   O peration     | Version:  5                                     |
|   \\  /    A nd           | Web:      www.OpenFOAM.org                      |
|    \\/     M anipulation  |                                                 |
\*---------------------------------------------------------------------------*/
FoamFile
{
    version     2.0;
    format      ascii;
    class       dictionary;
    object      fvSolution;
}
// * * * * * * * * * * * * * * * * * * * * * * * * * * * * * * * * * * * * * //

solvers
{
    ".*"
    {
        solver          PCG;
        preconditioner  FDIC;
        tolerance       1e-06;
        relTol          0.001;
        /*
        solver          GAMG;
        tolerance       1e-06;
        relTol          0.001;
        smoother        GaussSeidel;
        cacheAgglomeration true;
        nCellsInCoarsestLevel 50;
        agglomerator    faceAreaPair;
        mergeLevels     1;
        processorAgglomerator masterCoarsest;
        */
    }
    "fuelDisp"
    {

        solver          PBiCGStab;
        preconditioner  DILU;
        tolerance       1e-5;
        relTol          0.01;
    }
    "CRDisp"
    {

        solver          PBiCGStab;
        preconditioner  DILU;
        tolerance       1e-5;
        relTol          0.01;
    }
}

stressAnalysis
{
    compactNormalStress true;
    nCorrectors     3;
    D               1e-06;
}

PIMPLE
{
    nOuterCorrectors        1;
}

// ************************************************************************* //
