/*--------------------------------*- C++ -*----------------------------------*\
| =========                 |                                                 |
| \\      /  F ield         | OpenFOAM: The Open Source CFD Toolbox           |
|  \\    /   O peration     | Version:  5                                     |
|   \\  /    A nd           | Web:      www.OpenFOAM.org                      |
|    \\/     M anipulation  |                                                 |
\*---------------------------------------------------------------------------*/
FoamFile
{
    version     2.0;
    format      ascii;
    class       dictionary;
    object      blockMeshDict;
}
// * * * * * * * * * * * * * * * * * * * * * * * * * * * * * * * * * * * * * //

convertToMeters 1;

vertices #codeStream
{
    codeInclude
    #{
        #include "pointField.H"
        #include "solutionDomainFunctions.H"
        #include "solutionDomainSpecifications.H"
    #};

    codeOptions
    #{
        -I$(FOAM_CASE)/system
    #};

    code
    #{
        // Inside case system folder:
        // solutionDomainFunctions.H contains functions to help setup the mesh
        // solutionDomainSpecifications.H contains the domain specifications such as x and y length
        os << getVertices2D(xMax, xMin, yMax, yMin);
    #};
};

blocks
(
    hex (0 1 2 3 4 5 6 7) cavity (50 50 1) simpleGrading (1 1 1)
);

edges
(
);

boundary
(   
    topWall
    {
        type wall;
        faces
        (
            (3 7 6 2)
        );
    }
    bottomWall
    {
        type wall;
        faces
        (
            (1 5 4 0)
        );
    }
    leftWall
    {
        type wall;
        faces
        (
            (0 4 7 3)
        );
    }
    rightWall
    {
        type wall;
        faces
        (
            (2 6 5 1)
        );
    }
    frontAndBack
    {
        type empty;
        faces
        (
            (0 3 2 1)
            (4 5 6 7)
        );
    }
);

mergePatchPairs
(
);

// ************************************************************************* //
